Circuit: * C:\Users\isikemir\Desktop\Courses\EE464\Hardware_Project\Mind-The-Cap\1-Simulation\2-Simple_Flyback\Flyback_Ideal.asc

Direct Newton iteration for .op point succeeded.

Date: Wed May 10 00:30:52 2023
Total elapsed time: 11.791 seconds.

tnom = 27
temp = 27
method = Gear
totiter = 10632152
traniter = 10632146
tranpoints = 3055104
accept = 2181974
rejected = 873130
matrix size = 16
fillins = 6
solver = Normal
Matrix Compiler1: 1.23 KB object code size  0.2/0.1/[0.1]
Matrix Compiler2: off  [0.1]/0.1/0.1

